ipss.QA/output/psse/200BusV30-peak_raw_01192011.txt
ITER       DELTAP      BUS         DELTAQ      BUS        DELTA/V/      BUS       DELTAANG      BUS
   0        98.5000(       79   )   40.6868(       80   )
                                                             0.24790(      196   )   1.56531(       35   )
   1        15.5275(       79   )   45.1825(       78   )
                                                             0.15489(      196   )   0.15175(       11   )
   2         2.0448(       80   )    6.0638(       78   )
                                                             0.04120(      196   )   0.04200(      147   )
   3         0.0900(       78   )    0.2241(       78   )
                                                             0.00254(      196   )   0.00585(       65   )
   4         0.0004(      196   )    0.0008(       78   )
                                                             0.00001(      196   )   0.00005(       65   )
   5         0.0000(       66   )    0.0000(       74   )


 REACHED TOLERANCE IN   5 ITERATIONS

 LARGEST MISMATCH:    0.00 MW    0.00 MVAR     0.00 MVA AT BUS     31 [BUS031      500.00]
 SYSTEM TOTAL ABSOLUTE MISMATCH:               0.05 MVA

 SWING BUS SUMMARY:
   BUS# X-- NAME --X BASKV      PGEN     PMAX    PMIN      QGEN     QMAX    QMIN
     77 BUS077      13.800    2698.1   4878.9     0.0    1200.5   2649.0 -1850.0




      PTI INTERACTIVE POWER SYSTEM SIMULATOR--PSS®E      SUN, JAN 16 2011  13:45
                                100.0                                     RATING   %MVA FOR TRANSFORMERS
                                                                           SET A   % I  FOR NON-TRANSFORMER BRANCHES

 BUS      2 BUS002      500.00 CKT     MW     MVAR     MVA   % 0.9920PU  -29.93  X--- LOSSES ---X X---- AREA -----X X---- ZONE -----X      2
                                                               495.98KV               MW     MVAR    1                 1 ZONE-001
  TO LOAD-PQ                        1750.0   -56.0  1750.9
  TO      3 BUS003      345.00  1  -1050.0    81.7  1053.2     1.0000LK              0.00  164.58    1                 1 ZONE-001
  TO      4 BUS004      20.000  1   -700.0   -25.7   700.5     0.9545LK              0.00   78.59    1                 1 ZONE-001

 BUS      3 BUS003      345.00 CKT     MW     MVAR     MVA   % 0.9921PU  -20.96  X--- LOSSES ---X X---- AREA -----X X---- ZONE -----X      3
                                                               342.26KV               MW     MVAR    1                 1 ZONE-001
  TO      2 BUS002      500.00  1   1050.0    82.9  1053.3     1.0000UN              0.00  164.58    1                 1 ZONE-001
  TO      8 BUS008      345.00  1  -1050.0   -82.9  1053.3                          20.09  223.09    1                 1 ZONE-001

 BUS      4 BUS004      20.000 CKT     MW     MVAR     MVA   % 1.0500PU  -23.55  X--- LOSSES ---X X---- AREA -----X X---- ZONE -----X      4
  FROM GENERATION                    800.0   104.3R  806.8  88 21.000KV               MW     MVAR    1                 1 ZONE-001
  TO LOAD-PQ                         100.0     0.0   100.0
  TO      2 BUS002      500.00  1    700.0   104.3   707.7     1.0000UN              0.00   78.59    1                 1 ZONE-001

 BUS      5 BUS005      345.00 CKT     MW     MVAR     MVA   % 1.0563PU   -0.06  X--- LOSSES ---X X---- AREA -----X X---- ZONE -----X      5
                                                               364.42KV               MW     MVAR    1                 1 ZONE-001
  TO LOAD-PQ                        2350.0  -100.0  2352.1
  TO      6 BUS006      22.000  1   -948.0    61.1   950.0     1.0000LK              0.00  100.13    1                 1 ZONE-001
  TO     11 BUS011      20.000  1  -1950.0   525.3  2019.5     1.0000LK              0.00  548.30    1                 1 ZONE-001
  TO     17 BUS017      345.00  1    158.8  -118.3   198.1                           2.21   24.91    1                 1 ZONE-001
  TO    160 BUS160      345.00  1    114.7  -144.3   184.3                           0.96   16.23    1                 1 ZONE-001
  TO    190 BUS190      345.00  1     99.1   -75.1   124.3                           0.54    7.63    1                 1 ZONE-001
  TO    191 BUS191      345.00  1    175.4  -148.7   229.9                           0.53    7.48    1                 1 ZONE-001

 BUS      6 BUS006      22.000 CKT     MW     MVAR     MVA   % 1.0550PU    5.98  X--- LOSSES ---X X---- AREA -----X X---- ZONE -----X      6
  FROM GENERATION                   1048.0    39.0R 1048.7  70 23.210KV               MW     MVAR    1                 1 ZONE-001
  TO LOAD-PQ                         100.0     0.0   100.0
  TO      5 BUS005      345.00  1    948.0    39.0   948.8     1.0000UN              0.00  100.13    1                 1 ZONE-001

 BUS      7 BUS007      500.00 CKT     MW     MVAR     MVA   % 1.0345PU  -11.48  X--- LOSSES ---X X---- AREA -----X X---- ZONE -----X      7
                                                               517.24KV               MW     MVAR    1                 1 ZONE-001
  TO SHUNT                             0.0  1070.2  1070.2
  TO      8 BUS008      345.00  1   -382.5  -443.5   585.7     1.0630LK              0.00   39.84    1                 1 ZONE-001
  TO      8 BUS008      345.00  2   -382.5  -443.5   585.7     1.0630LK              0.00   39.84    1                 1 ZONE-001
  TO     28 BUS028      500.00  1    765.0  -183.1   786.6                           0.00  -23.59    1                 1 ZONE-001

 BUS      8 BUS008      345.00 CKT     MW     MVAR     MVA   % 1.0242PU   -9.06  X--- LOSSES ---X X---- AREA -----X X---- ZONE -----X      8
                                                               353.36KV               MW     MVAR    1                 1 ZONE-001
  TO LOAD-PQ                         239.0    20.0   239.8
  TO SHUNT                             0.0    83.9    83.9
  TO      3 BUS003      345.00  1   1070.1    44.1  1071.0                          20.09  223.09    1                 1 ZONE-001
  TO      7 BUS007      500.00  1    382.5   483.4   616.4     1.0000UN              0.00   39.84    1                 1 ZONE-001
  TO      7 BUS007      500.00  2    382.5   483.4   616.4     1.0000UN              0.00   39.84    1                 1 ZONE-001
  TO      9 BUS009      22.000  1  -2060.0  -330.7  2086.4     1.0000LK              0.00  244.82    1                 1 ZONE-001
  TO     10 BUS010      230.00  1     70.1    12.6    71.2     1.0000LK              0.01    0.67    1                 1 ZONE-001
  TO     10 BUS010      230.00  2     69.6    12.5    70.7     1.0000LK              0.01    0.66    1                 1 ZONE-001
  TO     17 BUS017      345.00  1    -68.9  -722.5   725.8                           2.48   26.28    1                 1 ZONE-001
  TO    163 BUS163      345.00  1    -84.9   -86.7   121.4                           0.44    4.02    1                 1 ZONE-001

 BUS      9 BUS009      22.000 CKT     MW     MVAR     MVA   % 1.0500PU   -2.57  X--- LOSSES ---X X---- AREA -----X X---- ZONE -----X      9
  FROM GENERATION                   2160.0   575.5R 2235.4  91 23.100KV               MW     MVAR    1                 1 ZONE-001
  TO LOAD-PQ                         100.0     0.0   100.0
  TO      8 BUS008      345.00  1   2060.0   575.5  2138.9     1.0000UN              0.00  244.82    1                 1 ZONE-001

 BUS     10 BUS010      230.00 CKT     MW     MVAR     MVA   % 1.0224PU   -9.59  X--- LOSSES ---X X---- AREA -----X X---- ZONE -----X     10
                                                               235.15KV               MW     MVAR    1                 1 ZONE-001
  TO LOAD-PQ                         139.7    23.8   141.7
  TO      8 BUS008      345.00  1    -70.1   -12.0    71.1     1.0000UN              0.01    0.67    1                 1 ZONE-001
  TO      8 BUS008      345.00  2    -69.6   -11.8    70.6     1.0000UN              0.01    0.66    1                 1 ZONE-001

 BUS     11 BUS011      20.000 CKT     MW     MVAR     MVA   % 1.0200PU   15.69  X--- LOSSES ---X X---- AREA -----X X---- ZONE -----X     11
  FROM GENERATION                   2050.0    23.0R 2050.1  68 20.400KV               MW     MVAR    1                 1 ZONE-001
  TO LOAD-PQ                         100.0     0.0   100.0
  TO      5 BUS005      345.00  1   1950.0    23.0  1950.1     1.0000UN              0.00  548.30    1                 1 ZONE-001

 BUS     12 BUS012      500.00 CKT     MW     MVAR     MVA   % 1.0620PU  -23.29  X--- LOSSES ---X X---- AREA -----X X---- ZONE -----X     12
                                                               531.02KV               MW     MVAR    1                 1 ZONE-001
  TO LOAD-PQ                          90.0    70.0   114.0
  TO SHUNT                             0.0   214.3   214.3
  TO     13 BUS013      26.000  1  -1590.0  -159.6  1598.0     1.0800LK              0.00  175.87    1                 1 ZONE-001
  TO     20 BUS020      500.00  1    482.3    17.9   482.6                           0.00  -13.09    1                 1 ZONE-001
  TO     22 BUS022      500.00  1    309.6  -222.0   380.9                           0.00  -15.28    1                 1 ZONE-001
  TO    139 BUS139      500.00  1    811.5    65.1   814.1                          16.72  126.01    1                 1 ZONE-001
  TO    194 BUS194      230.00  1   -103.3    14.3   104.3     1.0000LK              0.01    1.34    1                 1 ZONE-001

 BUS     13 BUS013      26.000 CKT     MW     MVAR     MVA   % 1.0000PU  -17.11  X--- LOSSES ---X X---- AREA -----X X---- ZONE -----X     13
  FROM GENERATION                   1690.0   335.5R 1723.0  49 26.000KV               MW     MVAR    1                 1 ZONE-001
  TO LOAD-PQ                         100.0     0.0   100.0
  TO     12 BUS012      500.00  1   1590.0   335.5  1625.0     1.0000UN              0.00  175.87    1                 1 ZONE-001

 BUS     14 BUS014      500.00 CKT     MW     MVAR     MVA   % 1.0538PU  -24.60  X--- LOSSES ---X X---- AREA -----X X---- ZONE -----X     14
                                                               526.92KV               MW     MVAR    1                 1 ZONE-001
  TO SHUNT                             0.0   434.2   434.2
  TO     21 BUS021      500.00  1   -480.6  -162.0   507.2                           0.00  -14.68    1                 1 ZONE-001
  TO     24 BUS024      500.00  1    334.5  -158.3   370.0                           0.00  -10.18    1                 1 ZONE-001
  TO     26 BUS026      500.00  1    901.3  -111.7   908.2                           0.00 -133.33    1                 1 ZONE-001
  TO     29 BUS029      500.00  1   -755.2    -2.3   755.2                           0.00  -31.43    1                 1 ZONE-001

 BUS     15 BUS015      24.000 CKT     MW     MVAR     MVA   % 1.0000PU  -21.73  X--- LOSSES ---X X---- AREA -----X X---- ZONE -----X     15
  FROM GENERATION                   2640.0  1235.0R 2914.6  93 24.000KV               MW     MVAR    1                 1 ZONE-001
  TO LOAD-PQ                         100.0     0.0   100.0
  TO     16 BUS016      500.00  1   2540.0  1235.0  2824.3     1.0000UN              4.79  394.86    1                 1 ZONE-001

 BUS     16 BUS016      500.00 CKT     MW     MVAR     MVA   % 1.0460PU  -29.32  X--- LOSSES ---X X---- AREA -----X X---- ZONE -----X     16
                                                               522.99KV               MW     MVAR    1                 1 ZONE-001
  TO LOAD-PQ                         793.4   207.0   820.0
  TO SHUNT                             0.0   765.8   765.8
  TO     15 BUS015      24.000  1  -2535.2  -840.2  2670.8     1.1061LK              4.79  394.86    1                 1 ZONE-001
  TO     19 BUS019      500.00  1    -11.5   -32.1    34.1                           0.00    0.04    1                 1 ZONE-001
  TO     19 BUS019      500.00  2    -11.5   -32.1    34.1                           0.00    0.04    1                 1 ZONE-001
  TO    136 BUS136      500.00  1    882.4   -34.2   883.0                          18.60  213.04    1                 1 ZONE-001
  TO    136 BUS136      500.00  2    882.4   -34.2   883.0                          18.60  213.04    1                 1 ZONE-001

 BUS     17 BUS017      345.00 CKT     MW     MVAR     MVA   % 1.0617PU   -9.06  X--- LOSSES ---X X---- AREA -----X X---- ZONE -----X     17
                                                               366.29KV               MW     MVAR    1                 1 ZONE-001
  TO LOAD-PQ                         840.0     5.0   840.0
  TO SHUNT                             0.0  -439.6   439.6
  TO      5 BUS005      345.00  1   -156.6   -81.0   176.3                           2.21   24.91    1                 1 ZONE-001
  TO      8 BUS008      345.00  1     71.4   739.2   742.6                           2.48   26.28    1                 1 ZONE-001
  TO     18 BUS018      22.000  1   -862.0  -191.6   883.0     1.0435LK              0.00   45.19    1                 1 ZONE-001
  TO    192 BUS192      345.00  1    107.2   -32.0   111.9                           0.07    0.92    1                 1 ZONE-001

 BUS     18 BUS018      22.000 CKT     MW     MVAR     MVA   % 1.0300PU   -6.23  X--- LOSSES ---X X---- AREA -----X X---- ZONE -----X     18
  FROM GENERATION                    962.0   236.8R  990.7  48 22.660KV               MW     MVAR    1                 1 ZONE-001
  TO LOAD-PQ                         100.0     0.0   100.0
  TO     17 BUS017      345.00  1    862.0   236.8   893.9     1.0000UN              0.00   45.19    1                 1 ZONE-001

 BUS     19 BUS019      500.00 CKT     MW     MVAR     MVA   % 1.0444PU  -29.26  X--- LOSSES ---X X---- AREA -----X X---- ZONE -----X     19
                                                               522.21KV               MW     MVAR    1                 1 ZONE-001
  TO LOAD-PQ                         617.0   120.0   628.6
  TO SHUNT                             0.0   465.8   465.8
  TO     16 BUS016      500.00  1     11.5   -66.5    67.5                           0.00    0.04    1                 1 ZONE-001
  TO     16 BUS016      500.00  2     11.5   -66.5    67.5                           0.00    0.04    1                 1 ZONE-001
  TO     23 BUS023      500.00  1   -307.3  -270.0   409.1                           0.00  -18.23    1                 1 ZONE-001
  TO     25 BUS025      500.00  1   -332.6  -182.7   379.5                           0.00  -10.90    1                 1 ZONE-001

 BUS     20 BUS020      500.00 CKT     MW     MVAR     MVA   % 1.0635PU  -21.74  X--- LOSSES ---X X---- AREA -----X X---- ZONE -----X     20
                                                               531.75KV               MW     MVAR    1                 1 ZONE-001
  TO     12 BUS012      500.00  1   -482.3   -30.9   483.3                           0.00  -13.09    1                 1 ZONE-001
  TO     21 BUS021      500.00  1    482.3    30.9   483.3                           1.67   39.03    1                 1 ZONE-001

 BUS     21 BUS021      500.00 CKT     MW     MVAR     MVA   % 1.0445PU  -26.19  X--- LOSSES ---X X---- AREA -----X X---- ZONE -----X     21
                                                               522.25KV               MW     MVAR    1                 1 ZONE-001
  TO     14 BUS014      500.00  1    480.6   147.3   502.7                           0.00  -14.68    1                 1 ZONE-001
  TO     20 BUS020      500.00  1   -480.6  -147.3   502.7                           1.67   39.03    1                 1 ZONE-001

 BUS     22 BUS022      500.00 CKT     MW     MVAR     MVA   % 1.0378PU  -21.38  X--- LOSSES ---X X---- AREA -----X X---- ZONE -----X     22
                                                               518.90KV               MW     MVAR    1                 1 ZONE-001
  TO     12 BUS012      500.00  1   -309.6   206.7   372.2                           0.00  -15.28    1                 1 ZONE-001
  TO     23 BUS023      500.00  1    309.6  -206.7   372.2                           2.21   53.85    1                 1 ZONE-001

 BUS     23 BUS023      500.00 CKT     MW     MVAR     MVA   % 1.0143PU  -31.23  X--- LOSSES ---X X---- AREA -----X X---- ZONE -----X     23
                                                               507.16KV               MW     MVAR    1                 1 ZONE-001
  TO     19 BUS019      500.00  1    307.3   251.8   397.3                           0.00  -18.23    1                 1 ZONE-001
  TO     22 BUS022      500.00  1   -307.3  -251.8   397.3                           2.21   53.85    1                 1 ZONE-001

 BUS     24 BUS024      500.00 CKT     MW     MVAR     MVA   % 1.0418PU  -23.16  X--- LOSSES ---X X---- AREA -----X X---- ZONE -----X     24
                                                               520.88KV               MW     MVAR    1                 1 ZONE-001
  TO     14 BUS014      500.00  1   -334.5   148.1   365.8                           0.00  -10.18    1                 1 ZONE-001
  TO     25 BUS025      500.00  1    334.5  -148.1   365.8                           1.87   44.25    1                 1 ZONE-001

 BUS     25 BUS025      500.00 CKT     MW     MVAR     MVA   % 1.0303PU  -30.72  X--- LOSSES ---X X---- AREA -----X X---- ZONE -----X     25
                                                               515.16KV               MW     MVAR    1                 1 ZONE-001
  TO     19 BUS019      500.00  1    332.6   171.8   374.4                           0.00  -10.90    1                 1 ZONE-001
  TO     24 BUS024      500.00  1   -332.6  -171.8   374.4                           1.87   44.25    1                 1 ZONE-001

 BUS     26 BUS026      500.00 CKT     MW     MVAR     MVA   % 1.0461PU  -16.16  X--- LOSSES ---X X---- AREA -----X X---- ZONE -----X     26
                                                               523.07KV               MW     MVAR    1                 1 ZONE-001
  TO     14 BUS014      500.00  1   -901.3   -21.6   901.6                           0.00 -133.33    1                 1 ZONE-001
  TO     27 BUS027      500.00  1    901.3    21.6   901.6                          16.44  393.76    1                 1 ZONE-001

 BUS     27 BUS027      500.00 CKT     MW     MVAR     MVA   % 1.0084PU  -40.93  X--- LOSSES ---X X---- AREA -----X X---- ZONE -----X     27
                                                               504.18KV               MW     MVAR    1                 1 ZONE-001
  TO     26 BUS026      500.00  1   -884.9   -45.0   886.0                          16.44  393.76    1                 1 ZONE-001
  TO    139 BUS139      500.00  1    884.9    45.0   886.0                           0.00 -138.60    1                 1 ZONE-001

 BUS     28 BUS028      500.00 CKT     MW     MVAR     MVA   % 1.0277PU   -9.80  X--- LOSSES ---X X---- AREA -----X X---- ZONE -----X     28
                                                               513.85KV               MW     MVAR    1                 1 ZONE-001
  TO      7 BUS007      500.00  1   -765.0   159.5   781.5                           0.00  -23.59    1                 1 ZONE-001
  TO     29 BUS029      500.00  1    765.0  -159.5   781.5                           9.81  232.24    1                 1 ZONE-001

 BUS     29 BUS029      500.00 CKT     MW     MVAR     MVA   % 1.0546PU  -26.98  X--- LOSSES ---X X---- AREA -----X X---- ZONE -----X     29
                                                               527.31KV               MW     MVAR    1                 1 ZONE-001
  TO     14 BUS014      500.00  1    755.2   -29.1   755.8                           0.00  -31.43    1                 1 ZONE-001
  TO     28 BUS028      500.00  1   -755.2    29.1   755.8                           9.81  232.24    1                 1 ZONE-001

 BUS     30 BUS030      20.000 CKT     MW     MVAR     MVA   % 1.0000PU   37.82  X--- LOSSES ---X X---- AREA -----X X---- ZONE -----X     30
  FROM GENERATION                   4450.0  1050.8R 4572.4  51 20.000KV               MW     MVAR    1                 1 ZONE-001
  TO LOAD-PQ                         100.0     0.0   100.0
  TO     31 BUS031      500.00  1   4350.0  1050.8  4475.1     1.0000UN              0.00  300.40    1                 1 ZONE-001

 BUS     31 BUS031      500.00 CKT     MW     MVAR     MVA   % 1.0357PU   34.03  X--- LOSSES ---X X---- AREA -----X X---- ZONE -----X     31
                                                               517.86KV               MW     MVAR    1                 1 ZONE-001
  TO LOAD-PQ                        4400.0  1000.0  4512.2
  TO     30 BUS030      20.000  1  -4350.0  -750.4  4414.3     1.0500LK              0.00  300.40    1                 1 ZONE-001
  TO     32 BUS032      500.00  1   -748.5   -81.7   753.0                          19.17  383.43    1                 1 ZONE-001
  TO     80 BUS080      500.00  1    698.5  -167.9   718.4                           3.78  108.72    1                 1 ZONE-001

 BUS     32 BUS032      500.00 CKT     MW     MVAR     MVA   % 1.0783PU   62.35  X--- LOSSES ---X X---- AREA -----X X---- ZONE -----X     32
                                                               539.15KV               MW     MVAR    1                 1 ZONE-001
  TO     31 BUS031      500.00  1    767.7   -49.7   769.3                          19.17  383.43    1                 1 ZONE-001
  TO     33 BUS033      230.00  1   -767.7    49.7   769.3     1.1000LK              0.00   61.58    1                 1 ZONE-001

 BUS     33 BUS033      230.00 CKT     MW     MVAR     MVA   % 0.9784PU   66.94  X--- LOSSES ---X X---- AREA -----X X---- ZONE -----X     33
                                                               225.02KV               MW     MVAR    1                 1 ZONE-001
  TO     32 BUS032      500.00  1    767.7    11.9   767.8     1.0000UN              0.00   61.58    1                 1 ZONE-001
  TO     34 BUS034      230.00  1   -767.7   -11.9   767.8                          12.33  123.28    1                 1 ZONE-001

 BUS     34 BUS034      230.00 CKT     MW     MVAR     MVA   % 1.0011PU   75.99  X--- LOSSES ---X X---- AREA -----X X---- ZONE -----X     34
                                                               230.26KV               MW     MVAR    1                 1 ZONE-001
  TO LOAD-PQ                        3600.0   700.0  3667.4
  TO     33 BUS033      230.00  1    780.0    56.8   782.1                          12.33  123.28    1                 1 ZONE-001
  TO     35 BUS035      20.000  1  -4380.0  -756.8  4444.9     1.0000LK              0.00  394.26    1                 1 ZONE-001

 BUS     35 BUS035      20.000 CKT     MW     MVAR     MVA   % 1.0200PU   80.91  X--- LOSSES ---X X---- AREA -----X X---- ZONE -----X     35
  FROM GENERATION                   4480.0  1151.1R 4625.5  76 20.400KV               MW     MVAR    1                 1 ZONE-001
  TO LOAD-PQ                         100.0     0.0   100.0
  TO     34 BUS034      230.00  1   4380.0  1151.1  4528.7     1.0000UN              0.00  394.26    1                 1 ZONE-001

 BUS     36 BUS036      22.000 CKT     MW     MVAR     MVA   % 1.0500PU    0.55  X--- LOSSES ---X X---- AREA -----X X---- ZONE -----X     36
  FROM GENERATION                   1640.0   124.5R 1644.7  93 23.100KV               MW     MVAR    1                 1 ZONE-001
  TO LOAD-PQ                         100.0     0.0   100.0
  TO     85 BUS085      345.00  1   1540.0   124.5  1545.0     1.0000UN              0.00   99.60    1                 1 ZONE-001

 BUS     37 BUS037      500.00 CKT     MW     MVAR     MVA   % 1.0256PU  -41.60  X--- LOSSES ---X X---- AREA -----X X---- ZONE -----X     37
                                                               512.82KV               MW     MVAR    1                 1 ZONE-001
  TO LOAD-PQ                       -1862.0   971.0  2100.0
  TO SHUNT                             0.0  -210.4   210.4
  TO     38 BUS038      500.00  1    434.7  -312.3   535.3                           1.73   43.50    1                 1 ZONE-001
  TO     56 BUS056      500.00  1    637.6   -85.1   643.3                           3.17   64.54    1                 1 ZONE-001
  TO     64 BUS064      500.00  1    394.8  -181.6   434.6                           0.00    2.82    1                 1 ZONE-001
  TO     64 BUS064      500.00  2    394.8  -181.6   434.6                           0.00    2.82    1                 1 ZONE-001

 BUS     38 BUS038      500.00 CKT     MW     MVAR     MVA   % 1.0688PU  -45.92  X--- LOSSES ---X X---- AREA -----X X---- ZONE -----X     38
                                                               534.41KV               MW     MVAR    1                 1 ZONE-001
  TO     37 BUS037      500.00  1   -433.0   201.9   477.8                           1.73   43.50    1                 1 ZONE-001
  TO     48 BUS048      230.00  1    433.0  -201.9   477.8     1.0500LK              0.29   15.27    1                 1 ZONE-001

 BUS     39 BUS039      230.00 CKT     MW     MVAR     MVA   % 1.0393PU  -47.07  X--- LOSSES ---X X---- AREA -----X X---- ZONE -----X     39
                                                               239.05KV               MW     MVAR    1                 1 ZONE-001
  TO     40 BUS040      18.000  1    -99.9   -43.3   108.9     1.0000LK              0.05    2.61    1                 1 ZONE-001
  TO     46 BUS046      230.00  1     18.1    13.3    22.5                           0.01    0.19    1                 1 ZONE-001
  TO     48 BUS048      230.00  1     26.5    15.0    30.4                           0.03    0.38    1                 1 ZONE-001
  TO     59 BUS059      230.00  1     64.8    13.9    66.3                           0.13    1.98    1                 1 ZONE-001
  TO     60 BUS060      230.00  1     -9.4     1.2     9.5                           0.00    0.04    1                 1 ZONE-001

 BUS     40 BUS040      18.000 CKT     MW     MVAR     MVA   % 1.0500PU  -45.83  X--- LOSSES ---X X---- AREA -----X X---- ZONE -----X     40
  FROM GENERATION                    200.0    46.0R  205.2  41 18.900KV               MW     MVAR    1                 1 ZONE-001
  TO LOAD-PQ                         100.0     0.0   100.0
  TO     39 BUS039      230.00  1    100.0    46.0   110.1     1.0000UN              0.05    2.61    1                 1 ZONE-001

 BUS     41 BUS041      230.00 CKT     MW     MVAR     MVA   % 1.0214PU  -50.70  X--- LOSSES ---X X---- AREA -----X X---- ZONE -----X     41
                                                               234.92KV               MW     MVAR    1                 1 ZONE-001
  TO LOAD-PQ                         135.0    27.0   137.7
  TO     55 BUS055      230.00  1   -221.2    23.0   222.4                           0.22    3.43    1                 1 ZONE-001
  TO     58 BUS058      230.00  1     86.2   -50.0    99.7                           0.03    0.51    1                 1 ZONE-001

 BUS     42 BUS042      230.00 CKT     MW     MVAR     MVA   % 1.0454PU  -50.51  X--- LOSSES ---X X---- AREA -----X X---- ZONE -----X     42
                                                               240.43KV               MW     MVAR    1                 1 ZONE-001
  TO     43 BUS043      18.000  1   -224.5  -199.5   300.3     1.0491LK              0.53   23.03    1                 1 ZONE-001
  TO     50 BUS050      230.00  1     65.5    51.0    83.0                           0.15    2.30    1                 1 ZONE-001
  TO     50 BUS050      230.00  2     61.2    46.9    77.1                           0.14    2.14    1                 1 ZONE-001
  TO     57 BUS057      230.00  1     75.0    55.6    93.3                           0.17    2.57    1                 1 ZONE-001
  TO     58 BUS058      230.00  1     22.8    46.1    51.4                           0.08    1.24    1                 1 ZONE-001

 BUS     43 BUS043      18.000 CKT     MW     MVAR     MVA   % 1.0500PU  -47.46  X--- LOSSES ---X X---- AREA -----X X---- ZONE -----X     43
  FROM GENERATION                    325.0   222.6R  393.9  73 18.900KV               MW     MVAR    1                 1 ZONE-001
  TO LOAD-PQ                         100.0     0.0   100.0
  TO     42 BUS042      230.00  1    225.0   222.6   316.5     1.0000UN              0.53   23.03    1                 1 ZONE-001

 BUS     44 BUS044      345.00 CKT     MW     MVAR     MVA   % 1.0568PU  -10.38  X--- LOSSES ---X X---- AREA -----X X---- ZONE -----X     44
                                                               364.60KV               MW     MVAR    1                 1 ZONE-001
  TO LOAD-PQ                        2053.0   907.1  2244.5
  TO SHUNT                             0.0  -480.3   480.3
  TO     45 BUS045      26.000  1  -1680.0  -307.9  1708.0     1.0250LK              0.00  142.70    1                 1 ZONE-001
  TO    160 BUS160      345.00  1   -186.5   -59.5   195.8                           0.58    7.90    1                 1 ZONE-001
  TO    160 BUS160      345.00  2   -186.5   -59.5   195.8                           0.58    7.90    1                 1 ZONE-001

 BUS     45 BUS045      26.000 CKT     MW     MVAR     MVA   % 1.0500PU   -5.75  X--- LOSSES ---X X---- AREA -----X X---- ZONE -----X     45
  FROM GENERATION                   1780.0   450.6R 1836.1  93 27.300KV               MW     MVAR    1                 1 ZONE-001
  TO LOAD-PQ                         100.0     0.0   100.0
  TO     44 BUS044      345.00  1   1680.0   450.6  1739.4     1.0000UN              0.00  142.70    1                 1 ZONE-001

 BUS     46 BUS046      230.00 CKT     MW     MVAR     MVA   % 1.0334PU  -47.37  X--- LOSSES ---X X---- AREA -----X X---- ZONE -----X     46
                                                               237.69KV               MW     MVAR    1                 1 ZONE-001
  TO LOAD-PQ                         -72.8   -17.0    74.8
  TO     39 BUS039      230.00  1    -18.1   -21.0    27.7                           0.01    0.19    1                 1 ZONE-001
  TO     48 BUS048      230.00  1     90.9    38.0    98.5                           0.03    0.40    1                 1 ZONE-001

 BUS     47 BUS047      11.500 CKT     MW     MVAR     MVA   % 1.0500PU  -47.10  X--- LOSSES ---X X---- AREA -----X X---- ZONE -----X     47
  FROM GENERATION                    110.0    59.6R  125.1  11 12.075KV               MW     MVAR    1                 1 ZONE-001
  TO LOAD-PQ                         100.0     0.0   100.0
  TO     48 BUS048      230.00  1     10.0    59.6    60.4     1.0000UN              0.17    3.79    1                 1 ZONE-001

 BUS     48 BUS048      230.00 CKT     MW     MVAR     MVA   % 1.0315PU  -47.57  X--- LOSSES ---X X---- AREA -----X X---- ZONE -----X     48
                                                               237.26KV               MW     MVAR    1                 1 ZONE-001
  TO LOAD-PQ                         121.0    25.0   123.6
  TO     38 BUS038      500.00  1   -432.7   217.2   484.2     1.0000UN              0.29   15.27    1                 1 ZONE-001
  TO     39 BUS039      230.00  1    -26.5   -23.4    35.4                           0.03    0.38    1                 1 ZONE-001
  TO     46 BUS046      230.00  1    -90.8   -38.6    98.7                           0.03    0.40    1                 1 ZONE-001
  TO     47 BUS047      11.500  1     -9.8   -55.8    56.6     1.0478LK              0.17    3.79    1                 1 ZONE-001
  TO     49 BUS049      500.00  1   -314.1   197.8   371.2     1.0000UN              0.34   17.95    1                 1 ZONE-001
  TO     55 BUS055      230.00  1    265.1    35.0   267.4                           1.54   10.65    1                 1 ZONE-001
  TO     55 BUS055      230.00  2    265.1    35.0   267.4                           1.54   10.65    1                 1 ZONE-001
  TO     59 BUS059      230.00  1    207.1    -3.4   207.2                           0.57    3.90    1                 1 ZONE-001
  TO     59 BUS059      230.00  2    207.1    -3.4   207.2                           0.57    3.90    1                 1 ZONE-001
  TO     59 BUS059      230.00  3    205.6    -7.4   205.7                           0.64    3.86    1                 1 ZONE-001
  TO     59 BUS059      230.00  4    205.6    -7.4   205.7                           0.64    3.86    1                 1 ZONE-001
  TO     60 BUS060      230.00  1   -335.6  -140.7   363.9                           0.34    4.89    1                 1 ZONE-001
  TO     60 BUS060      230.00  2   -335.6  -140.7   363.9                           0.34    4.89    1                 1 ZONE-001
  TO     60 BUS060      230.00  3   -335.6  -140.7   363.9                           0.34    4.89    1                 1 ZONE-001
  TO     62 BUS062      230.00  1    202.1    25.8   203.7                           0.54    4.36    1                 1 ZONE-001
  TO     62 BUS062      230.00  2    202.1    25.8   203.7                           0.54    4.36    1                 1 ZONE-001

 BUS     49 BUS049      500.00 CKT     MW     MVAR     MVA   % 1.0570PU  -45.14  X--- LOSSES ---X X---- AREA -----X X---- ZONE -----X     49
                                                               528.50KV               MW     MVAR    1                 1 ZONE-001
  TO SHUNT                             0.0    89.4    89.4
  TO     48 BUS048      230.00  1    314.5  -179.8   362.2     1.0500LK              0.34   17.95    1                 1 ZONE-001
  TO     64 BUS064      500.00  1   -314.5    90.4   327.2                           0.98   22.35    1                 1 ZONE-001

 BUS     50 BUS050      230.00 CKT     MW     MVAR     MVA   % 1.0261PU  -51.65  X--- LOSSES ---X X---- AREA -----X X---- ZONE -----X     50
                                                               236.01KV               MW     MVAR    1                 1 ZONE-001
  TO LOAD-PQ                         320.0    65.0   326.5
  TO     42 BUS042      230.00  1    -65.4   -56.9    86.7                           0.15    2.30    1                 1 ZONE-001
  TO     42 BUS042      230.00  2    -61.0   -53.6    81.2                           0.14    2.14    1                 1 ZONE-001
  TO     57 BUS057      230.00  1     15.1   -17.4    23.0                           0.00    0.02    1                 1 ZONE-001
  TO     58 BUS058      230.00  1   -208.7    63.0   218.0                           0.25    2.65    1                 1 ZONE-001

 BUS     51 BUS051      138.00 CKT     MW     MVAR     MVA   % 1.0296PU  -51.70  X--- LOSSES ---X X---- AREA -----X X---- ZONE -----X     51
                                                               142.08KV               MW     MVAR    1                 1 ZONE-001
  TO LOAD-PQ                         237.2   -63.2   245.5
  TO     52 BUS052      287.00  1   -147.4    12.4   147.9     1.0000UN              0.12    3.08    1                 1 ZONE-001
  TO     53 BUS053      287.00  1   -147.4    12.4   147.9     1.0000UN              0.12    3.08    1                 1 ZONE-001
  TO     54 BUS054      230.00  1     28.9    19.3    34.7     1.0000UN              0.00    0.15    1                 1 ZONE-001
  TO     54 BUS054      230.00  2     28.6    19.2    34.5     1.0000UN              0.00    0.15    1                 1 ZONE-001

 BUS     52 BUS052      287.00 CKT     MW     MVAR     MVA   % 1.0306PU  -50.51  X--- LOSSES ---X X---- AREA -----X X---- ZONE -----X     52
                                                               295.79KV               MW     MVAR    1                 1 ZONE-001
  TO     51 BUS051      138.00  1    147.5    -9.3   147.8     1.0017LK              0.12    3.08    1                 1 ZONE-001
  TO     63 BUS063      287.00  1   -147.5     9.3   147.8                           2.27   16.80    1                 1 ZONE-001

 BUS     53 BUS053      287.00 CKT     MW     MVAR     MVA   % 1.0306PU  -50.51  X--- LOSSES ---X X---- AREA -----X X---- ZONE -----X     53
                                                               295.79KV               MW     MVAR    1                 1 ZONE-001
  TO     51 BUS051      138.00  1    147.5    -9.3   147.8     1.0017LK              0.12    3.08    1                 1 ZONE-001
  TO     63 BUS063      287.00  1   -147.5     9.3   147.8                           2.27   16.80    1                 1 ZONE-001

 BUS     54 BUS054      230.00 CKT     MW     MVAR     MVA   % 1.0270PU  -51.91  X--- LOSSES ---X X---- AREA -----X X---- ZONE -----X     54
                                                               236.21KV               MW     MVAR    1                 1 ZONE-001
  TO LOAD-PQ                         138.0    28.0   140.8
  TO     51 BUS051      138.00  1    -28.9   -19.2    34.6     1.0000LK              0.00    0.15    1                 1 ZONE-001
  TO     51 BUS051      138.00  2    -28.6   -19.0    34.4     1.0000LK              0.00    0.15    1                 1 ZONE-001
  TO     57 BUS057      230.00  1    -40.2     5.1    40.6                           0.01    0.16    1                 1 ZONE-001
  TO     57 BUS057      230.00  2    -40.2     5.1    40.6                           0.01    0.16    1                 1 ZONE-001

 BUS     55 BUS055      230.00 CKT     MW     MVAR     MVA   % 1.0208PU  -49.81  X--- LOSSES ---X X---- AREA -----X X---- ZONE -----X     55
                                                               234.79KV               MW     MVAR    1                 1 ZONE-001
  TO LOAD-PQ                         807.8   132.1   818.5
  TO     41 BUS041      230.00  1    221.5   -21.3   222.5                           0.22    3.43    1                 1 ZONE-001
  TO     48 BUS048      230.00  1   -263.5   -27.5   265.0                           1.54   10.65    1                 1 ZONE-001
  TO     48 BUS048      230.00  2   -263.5   -27.5   265.0                           1.54   10.65    1                 1 ZONE-001
  TO     56 BUS056      500.00  1   -317.1    25.6   318.1     1.0000UN              0.13   13.46    1                 1 ZONE-001
  TO     56 BUS056      500.00  2   -317.1    25.6   318.1     1.0000UN              0.13   13.46    1                 1 ZONE-001
  TO     58 BUS058      230.00  1    164.7   -39.0   169.3                           0.33    3.41    1                 1 ZONE-001
  TO     58 BUS058      230.00  2    164.7   -39.0   169.3                           0.33    3.41    1                 1 ZONE-001
  TO     62 BUS062      230.00  1   -197.4   -29.0   199.5                           0.49    3.73    1                 1 ZONE-001

 BUS     56 BUS056      500.00 CKT     MW     MVAR     MVA   % 1.0295PU  -47.39  X--- LOSSES ---X X---- AREA -----X X---- ZONE -----X     56
                                                               514.73KV               MW     MVAR    1                 1 ZONE-001
  TO     37 BUS037      500.00  1   -634.4    24.2   634.9                           3.17   64.54    1                 1 ZONE-001
  TO     55 BUS055      230.00  1    317.2   -12.1   317.4     1.0106LK              0.13   13.46    1                 1 ZONE-001
  TO     55 BUS055      230.00  2    317.2   -12.1   317.4     1.0106LK              0.13   13.46    1                 1 ZONE-001

 BUS     57 BUS057      230.00 CKT     MW     MVAR     MVA   % 1.0267PU  -51.68  X--- LOSSES ---X X---- AREA -----X X---- ZONE -----X     57
                                                               236.13KV               MW     MVAR    1                 1 ZONE-001
  TO LOAD-PQ                         117.0    24.0   119.4
  TO     42 BUS042      230.00  1    -74.8   -60.4    96.2                           0.17    2.57    1                 1 ZONE-001
  TO     50 BUS050      230.00  1    -15.1    16.5    22.4                           0.00    0.02    1                 1 ZONE-001
  TO     54 BUS054      230.00  1     40.3    -7.6    41.0                           0.01    0.16    1                 1 ZONE-001
  TO     54 BUS054      230.00  2     40.3    -7.6    41.0                           0.01    0.16    1                 1 ZONE-001
  TO     58 BUS058      230.00  1   -107.6    35.2   113.2                           0.13    1.46    1                 1 ZONE-001

 BUS     58 BUS058      230.00 CKT     MW     MVAR     MVA   % 1.0237PU  -50.96  X--- LOSSES ---X X---- AREA -----X X---- ZONE -----X     58
                                                               235.45KV               MW     MVAR    1                 1 ZONE-001
  TO LOAD-PQ                         121.0    25.0   123.6
  TO     41 BUS041      230.00  1    -86.2    49.3    99.3                           0.03    0.51    1                 1 ZONE-001
  TO     42 BUS042      230.00  1    -22.7   -55.2    59.7                           0.08    1.24    1                 1 ZONE-001
  TO     50 BUS050      230.00  1    208.9   -61.6   217.8                           0.25    2.65    1                 1 ZONE-001
  TO     55 BUS055      230.00  1   -164.4    39.4   169.0                           0.33    3.41    1                 1 ZONE-001
  TO     55 BUS055      230.00  2   -164.4    39.4   169.0                           0.33    3.41    1                 1 ZONE-001
  TO     57 BUS057      230.00  1    107.8   -36.3   113.7                           0.13    1.46    1                 1 ZONE-001

 BUS     59 BUS059      230.00 CKT     MW     MVAR     MVA   % 1.0291PU  -48.66  X--- LOSSES ---X X---- AREA -----X X---- ZONE -----X     59
                                                               236.70KV               MW     MVAR    1                 1 ZONE-001
  TO LOAD-PQ                         887.7    -6.2   887.7
  TO     39 BUS039      230.00  1    -64.7   -22.7    68.5                           0.13    1.98    1                 1 ZONE-001
  TO     48 BUS048      230.00  1   -206.6     5.2   206.6                           0.57    3.90    1                 1 ZONE-001
  TO     48 BUS048      230.00  2   -206.6     5.2   206.6                           0.57    3.90    1                 1 ZONE-001
  TO     48 BUS048      230.00  3   -204.9     9.2   205.2                           0.64    3.86    1                 1 ZONE-001
  TO     48 BUS048      230.00  4   -204.9     9.2   205.2                           0.64    3.86    1                 1 ZONE-001

 BUS     60 BUS060      230.00 CKT     MW     MVAR     MVA   % 1.0378PU  -46.89  X--- LOSSES ---X X---- AREA -----X X---- ZONE -----X     60
                                                               238.70KV               MW     MVAR    1                 1 ZONE-001
  TO LOAD-PQ                       -2771.0  1654.0  3227.1
  TO SHUNT                             0.0 -2311.5  2311.5
  TO     39 BUS039      230.00  1      9.4    -9.2    13.2                           0.00    0.04    1                 1 ZONE-001
  TO     48 BUS048      230.00  1    335.9   144.6   365.7                           0.34    4.89    1                 1 ZONE-001
  TO     48 BUS048      230.00  2    335.9   144.6   365.7                           0.34    4.89    1                 1 ZONE-001
  TO     48 BUS048      230.00  3    335.9   144.6   365.7                           0.34    4.89    1                 1 ZONE-001
  TO     61 BUS061      230.00  1   1753.7   232.9  1769.1     1.0133LK              0.00   34.31    1                 1 ZONE-001

 BUS     61 BUS061      230.00 CKT     MW     MVAR     MVA   % 1.0218PU  -47.99  X--- LOSSES ---X X---- AREA -----X X---- ZONE -----X     61
                                                               235.01KV               MW     MVAR    1                 1 ZONE-001
  TO LOAD-PQ                         401.0    80.6   409.0
  TO     60 BUS060      230.00  1  -1753.7  -198.6  1765.0     1.0000UN              0.00   34.31    1                 1 ZONE-001
  TO    137 BUS137      230.00  1    308.2    -2.1   308.2                           1.27   24.02    1                 1 ZONE-001
  TO    150 BUS150      230.00  1    522.3    60.1   525.7                           1.72   31.46    1                 1 ZONE-001
  TO    150 BUS150      230.00  2    522.3    60.1   525.7                           1.72   31.46    1                 1 ZONE-001

 BUS     62 BUS062      230.00 CKT     MW     MVAR     MVA   % 1.0261PU  -48.77  X--- LOSSES ---X X---- AREA -----X X---- ZONE -----X     62
                                                               236.01KV               MW     MVAR    1                 1 ZONE-001
  TO LOAD-PQ                         205.2    17.6   206.0
  TO     48 BUS048      230.00  1   -201.5   -24.0   203.0                           0.54    4.36    1                 1 ZONE-001
  TO     48 BUS048      230.00  2   -201.5   -24.0   203.0                           0.54    4.36    1                 1 ZONE-001
  TO     55 BUS055      230.00  1    197.9    30.5   200.2                           0.49    3.73    1                 1 ZONE-001

 BUS     63 BUS063      287.00 CKT     MW     MVAR     MVA   % 1.0304PU  -44.04  X--- LOSSES ---X X---- AREA -----X X---- ZONE -----X     63
                                                               295.73KV               MW     MVAR    1                 1 ZONE-001
  TO LOAD-PQ                        -129.0    32.2   133.0
  TO SHUNT                             0.0   114.7   114.7
  TO     52 BUS052      287.00  1    149.8   -31.4   153.0                           2.27   16.80    1                 1 ZONE-001
  TO     53 BUS053      287.00  1    149.8   -31.4   153.0                           2.27   16.80    1                 1 ZONE-001
  TO     64 BUS064      500.00  1   -170.5   -84.0   190.1     1.0000UN              0.07    7.96    1                 1 ZONE-001

 BUS     64 BUS064      500.00 CKT     MW     MVAR     MVA   % 1.0284PU  -41.94  X--- LOSSES ---X X---- AREA -----X X---- ZONE -----X     64
                                                               514.18KV               MW     MVAR    1                 1 ZONE-001
  TO     37 BUS037      500.00  1   -394.8   171.8   430.6                           0.00    2.82    1                 1 ZONE-001
  TO     37 BUS037      500.00  2   -394.8   171.8   430.6                           0.00    2.82    1                 1 ZONE-001
  TO     49 BUS049      500.00  1    315.4  -249.3   402.1                           0.98   22.35    1                 1 ZONE-001
  TO     63 BUS063      287.00  1    170.6    92.0   193.8     0.9789LK              0.07    7.96    1                 1 ZONE-001
  TO    139 BUS139      500.00  1   -706.4    82.5   711.2                           8.65  122.01    1                 1 ZONE-001
  TO    139 BUS139      500.00  2   -706.4    82.5   711.2                           8.65  122.01    1                 1 ZONE-001
  TO    142 BUS142      500.00  1   1716.4  -351.3  1751.9                           5.78  118.58    1                 1 ZONE-001

 BUS     65 BUS065      20.000 CKT     MW     MVAR     MVA   % 1.0000PU   69.00  X--- LOSSES ---X X---- AREA -----X X---- ZONE -----X     65
  FROM GENERATION                   2900.0  1032.3R 3078.3 100 20.000KV               MW     MVAR    1                 1 ZONE-001
  TO LOAD-PQ                         100.0     0.0   100.0
  TO     66 BUS066      500.00  1   2800.0  1032.3  2984.2     1.0000UN              0.00  445.28    1                 1 ZONE-001

 BUS     66 BUS066      500.00 CKT     MW     MVAR     MVA   % 1.0449PU   60.60  X--- LOSSES ---X X---- AREA -----X X---- ZONE -----X     66
                                                               522.47KV               MW     MVAR    1                 1 ZONE-001
  TO LOAD-PQ                        1700.0   300.0  1726.3
  TO     65 BUS065      20.000  1  -2800.0  -587.0  2860.9     1.0900LK              0.00  445.28    1                 1 ZONE-001
  TO     78 BUS078      500.00  1   1100.0   287.0  1136.8                           9.72 1027.22    1                 1 ZONE-001

 BUS     67 BUS067      115.00 CKT     MW     MVAR     MVA   % 1.0283PU  -10.85  X--- LOSSES ---X X---- AREA -----X X---- ZONE -----X     67
                                                               118.25KV               MW     MVAR    1                 1 ZONE-001
  TO LOAD-PQ                         160.0    31.2   163.0
  TO     68 BUS068      230.00  1   -160.0   -31.3   163.0     1.0000UN              0.22    7.52    1                 1 ZONE-001

 BUS     68 BUS068      230.00 CKT     MW     MVAR     MVA   % 1.0266PU   -8.30  X--- LOSSES ---X X---- AREA -----X X---- ZONE -----X     68
                                                               236.11KV               MW     MVAR    1                 1 ZONE-001
  TO LOAD-PQ                         -67.5   160.0   173.7
  TO SHUNT                             0.0  -607.9   607.9
  TO     67 BUS067      115.00  1    160.2    38.8   164.8     0.9873LK              0.22    7.52    1                 1 ZONE-001
  TO     69 BUS069      500.00  1   -125.6   -16.6   126.7     1.0000UN              0.03    1.80    1                 1 ZONE-001
  TO     69 BUS069      500.00  2   -201.7   -27.6   203.6     1.0000UN              0.04    2.89    1                 1 ZONE-001
  TO     70 BUS070      13.800  1   -979.0  -121.3   986.5     1.0455LK              0.00  104.37    1                 1 ZONE-001
  TO     71 BUS071      230.00  1    569.2   271.7   630.7                           0.23    4.95    1                 1 ZONE-001
  TO     71 BUS071      230.00  2    644.4   303.0   712.1                           0.29    5.58    1                 1 ZONE-001

 BUS     69 BUS069      500.00 CKT     MW     MVAR     MVA   % 1.0533PU   -7.49  X--- LOSSES ---X X---- AREA -----X X---- ZONE -----X     69
                                                               526.66KV               MW     MVAR    1                 1 ZONE-001
  TO LOAD-PQ                         -44.2    22.0    49.4
  TO     68 BUS068      230.00  1    125.6    18.4   127.0     1.0238LK              0.03    1.80    1                 1 ZONE-001
  TO     68 BUS068      230.00  2    201.7    30.5   204.0     1.0238LK              0.04    2.89    1                 1 ZONE-001
  TO     72 BUS072      500.00  1    576.8   -53.0   579.2                           0.03    0.91    1                 1 ZONE-001
  TO     72 BUS072      500.00  2    576.8   -53.2   579.2                           0.03    0.91    1                 1 ZONE-001
  TO     76 BUS076      500.00  1   -714.1    18.9   714.4                           1.06   20.79    1                 1 ZONE-001
  TO     76 BUS076      500.00  2   -722.6    16.4   722.8                           0.94   21.03    1                 1 ZONE-001

 BUS     70 BUS070      13.800 CKT     MW     MVAR     MVA   % 1.0000PU   -2.38  X--- LOSSES ---X X---- AREA -----X X---- ZONE -----X     70
  FROM GENERATION                   1079.0   225.6R 1102.3  92 13.800KV               MW     MVAR    1                 1 ZONE-001
  TO LOAD-PQ                         100.0     0.0   100.0
  TO     68 BUS068      230.00  1    979.0   225.6  1004.7     1.0000UN              0.00  104.37    1                 1 ZONE-001

 BUS     71 BUS071      230.00 CKT     MW     MVAR     MVA   % 1.0228PU   -8.69  X--- LOSSES ---X X---- AREA -----X X---- ZONE -----X     71
                                                               235.24KV               MW     MVAR    1                 1 ZONE-001
  TO LOAD-PQ                        2137.0  1381.0  2544.4
  TO SHUNT                             0.0  -523.1   523.1
  TO     68 BUS068      230.00  1   -569.0  -267.1   628.5                           0.23    4.95    1                 1 ZONE-001
  TO     68 BUS068      230.00  2   -644.1  -297.7   709.6                           0.29    5.58    1                 1 ZONE-001
  TO     72 BUS072      500.00  1   -923.9  -293.1   969.3     1.0000UN              0.00   19.85    1                 1 ZONE-001

 BUS     72 BUS072      500.00 CKT     MW     MVAR     MVA   % 1.0534PU   -7.58  X--- LOSSES ---X X---- AREA -----X X---- ZONE -----X     72
                                                               526.71KV               MW     MVAR    1                 1 ZONE-001
  TO SHUNT                             0.0  -443.9   443.9
  TO     69 BUS069      500.00  1   -576.7    52.3   579.1                           0.03    0.91    1                 1 ZONE-001
  TO     69 BUS069      500.00  2   -576.7    52.1   579.1                           0.03    0.91    1                 1 ZONE-001
  TO     71 BUS071      230.00  1    923.9   312.9   975.5     1.0234LK              0.00   19.85    1                 1 ZONE-001
  TO    197 BUS197      500.00  1    114.8    13.3   115.5                           0.40    4.64    1                 1 ZONE-001
  TO    197 BUS197      500.00  2    114.8    13.3   115.5                           0.40    4.64    1                 1 ZONE-001

 BUS     73 BUS073      500.00 CKT     MW     MVAR     MVA   % 1.0537PU   26.35  X--- LOSSES ---X X---- AREA -----X X---- ZONE -----X     73
                                                               526.83KV               MW     MVAR    1                 1 ZONE-001
  TO    183 BUS183      500.00  1   1898.0  -166.8  1905.3                          17.58  137.35    1                 1 ZONE-001
  TO    199 BUS199      26.000  1  -1898.0   166.8  1905.3     1.0000LK              0.00  217.77    1                 1 ZONE-001

 BUS     74 BUS074      500.00 CKT     MW     MVAR     MVA   % 0.9864PU   46.92  X--- LOSSES ---X X---- AREA -----X X---- ZONE -----X     74
                                                               493.18KV               MW     MVAR    1                 1 ZONE-001
  TO     78 BUS078      500.00  1   2900.0   587.3  2958.9                         103.01 1886.10    1                 1 ZONE-001
  TO    198 BUS198      13.800  1  -2900.0  -587.3  2958.9     1.0000LK              0.00  179.97    1                 1 ZONE-001

 BUS     75 BUS075      500.00 CKT     MW     MVAR     MVA   % 1.0201PU   13.03  X--- LOSSES ---X X---- AREA -----X X---- ZONE -----X     75
                                                               510.05KV               MW     MVAR    1                 1 ZONE-001
  TO LOAD-PQ                        1284.0   234.0  1305.1
  TO     78 BUS078      500.00  1    211.7   -56.9   219.2                           0.63   10.09    1                 1 ZONE-001
  TO    182 BUS182      500.00  1    229.9   -80.7   243.6                           1.00   16.88    1                 1 ZONE-001
  TO    183 BUS183      500.00  1  -1725.6   -96.4  1728.3                          35.78  281.70    1                 1 ZONE-001

 BUS     76 BUS076      500.00 CKT     MW     MVAR     MVA   % 1.0537PU   -5.83  X--- LOSSES ---X X---- AREA -----X X---- ZONE -----X     76
                                                               526.86KV               MW     MVAR    1                 1 ZONE-001
  TO LOAD-PQ                        3200.0  1100.0  3383.8
  TO SHUNT                             0.0 -1131.8  1131.8
  TO     69 BUS069      500.00  1    715.2   -35.0   716.1                           1.06   20.79    1                 1 ZONE-001
  TO     69 BUS069      500.00  2    723.5   -29.2   724.1                           0.94   21.03    1                 1 ZONE-001
  TO     77 BUS077      13.800  1  -2598.1  -893.3  2747.4     1.0977LK              0.00  307.18    1                 1 ZONE-001
  TO     78 BUS078      500.00  1  -1259.8   355.7  1309.0                          19.35  373.45    1                 1 ZONE-001
  TO     78 BUS078      500.00  2  -1478.8   269.0  1503.1                           6.50  433.52    1                 1 ZONE-001
  TO     82 BUS082      500.00  1   1097.8   -55.7  1099.2                           6.84  153.26    1                 1 ZONE-001
  TO     82 BUS082      500.00  2    643.7   -83.7   649.1                           4.07   89.86    1                 1 ZONE-001
  TO     82 BUS082      500.00  3    643.4   -83.3   648.8                           4.03   89.83    1                 1 ZONE-001
  TO    181 BUS181      500.00  1  -1686.9   587.4  1786.2                          13.91  158.78    1                 1 ZONE-001

 BUS     77 BUS077      13.800 CKT     MW     MVAR     MVA   % 1.0000PU    0.00  X--- LOSSES ---X X---- AREA -----X X---- ZONE -----X     77
  FROM GENERATION                   2698.1  1200.5R 2953.1  54 13.800KV               MW     MVAR    1                 1 ZONE-001
  TO LOAD-PQ                         100.0     0.0   100.0
  TO     76 BUS076      500.00  1   2598.1  1200.5  2862.1     1.0000UN              0.00  307.18    1                 1 ZONE-001

 BUS     78 BUS078      500.00 CKT     MW     MVAR     MVA   % 1.0092PU   10.40  X--- LOSSES ---X X---- AREA -----X X---- ZONE -----X     78
                                                               504.58KV               MW     MVAR    1                 1 ZONE-001
  TO LOAD-PQ                        3500.0   600.0  3551.1
  TO SHUNT                             0.0 -1018.4  1018.4
  TO     66 BUS066      500.00  1  -1090.3   226.3  1113.5                           9.72 1027.22    1                 1 ZONE-001
  TO     74 BUS074      500.00  1  -2797.0  1114.1  3010.7                         103.01 1886.10    1                 1 ZONE-001
  TO     75 BUS075      500.00  1   -211.0  -126.5   246.1                           0.63   10.09    1                 1 ZONE-001
  TO     76 BUS076      500.00  1   1279.1  -164.9  1289.7                          19.35  373.45    1                 1 ZONE-001
  TO     76 BUS076      500.00  2   1485.3  -218.6  1501.3                           6.50  433.52    1                 1 ZONE-001
  TO     80 BUS080      500.00  1  -3251.6    47.1  3251.9                          20.79  852.33    1                 1 ZONE-001
  TO     80 BUS080      500.00  2  -3251.6    47.1  3251.9                          20.79  852.33    1                 1 ZONE-001
  TO    182 BUS182      500.00  1   1501.6  -319.9  1535.3                           3.70   42.28    1                 1 ZONE-001
  TO    196 BUS196      500.00  1    945.1   -62.1   947.2                          18.88  216.42    1                 1 ZONE-001
  TO    196 BUS196      500.00  2    945.1   -62.1   947.2                          18.88  216.42    1                 1 ZONE-001
  TO    196 BUS196      500.00  3    945.1   -62.1   947.2                          18.88  216.42    1                 1 ZONE-001

 BUS     79 BUS079      20.000 CKT     MW     MVAR     MVA   % 1.0200PU   39.44  X--- LOSSES ---X X---- AREA -----X X---- ZONE -----X     79
  FROM GENERATION                   9950.0  3027.0R10400.3  80 20.400KV               MW     MVAR    1                 1 ZONE-001
  TO LOAD-PQ                         100.0     0.0   100.0
  TO     80 BUS080      500.00  1   9850.0  3027.0 10304.6     1.0000UN              0.00 2551.55    1                 1 ZONE-001

 BUS     80 BUS080      500.00 CKT     MW     MVAR     MVA   % 1.0406PU   25.12  X--- LOSSES ---X X---- AREA -----X X---- ZONE -----X     80
...